DrugBank_5354
 OpenBabel01151909533D

 44 45  0  0  1  0  0  0  0  0999 V2000
    1.8325   -2.6083    6.9051 C   0  0  0  0  0  0  0  0  0  0  0  0
    2.4804   -2.7387    5.6768 C   0  0  0  0  0  0  0  0  0  0  0  0
    1.5879   -1.3407    7.4335 C   0  0  0  0  0  0  0  0  0  0  0  0
    3.5187    1.3150    1.2216 C   0  0  0  0  0  0  0  0  0  0  0  0
    2.2695    0.9300    0.7351 C   0  0  0  0  0  0  0  0  0  0  0  0
    2.8838   -1.6016    4.9768 C   0  0  0  0  0  0  0  0  0  0  0  0
    1.9912   -0.2036    6.7335 C   0  0  0  0  0  0  0  0  0  0  0  0
    3.7779    1.2698    2.5915 C   0  0  0  0  0  0  0  0  0  0  0  0
    1.5384    0.4547    2.9883 C   0  0  0  0  0  0  0  0  0  0  0  0
    1.2793    0.4999    1.6184 C   0  0  0  0  0  0  0  0  0  0  0  0
    2.6392   -0.3340    5.5052 C   0  0  0  0  0  0  0  0  0  0  0  0
    2.7877    0.8397    3.4748 C   0  0  0  0  0  0  0  0  0  0  0  0
   -0.0716    0.0841    1.0921 C   0  0  0  0  0  0  0  0  0  0  0  0
   -0.1690   -1.4081    0.7460 C   0  0  0  0  0  0  0  0  0  0  0  0
   -1.5542   -1.8055    0.2232 C   0  0  0  0  0  0  0  0  0  0  0  0
   -1.7220   -3.2936   -0.1137 C   0  0  2  0  0  0  0  0  0  0  0  0
   -0.0324   -4.7546    1.5737 O   0  0  0  0  0  0  0  0  0  0  0  0
    0.6632   -4.0097   -0.9965 O   0  0  0  0  0  0  0  0  0  0  0  0
   -0.9370   -2.9514   -2.6389 O   0  0  0  0  0  0  0  0  0  0  0  0
   -2.3477   -5.7173    0.8129 O   0  0  0  0  0  0  0  0  0  0  0  0
   -2.3166   -3.8139    2.4606 O   0  0  0  0  0  0  0  0  0  0  0  0
   -1.3529   -5.2566   -1.7603 O   0  0  0  0  0  0  0  0  0  0  0  0
    3.0409    0.7951    4.8115 O   0  0  0  0  0  0  0  0  0  0  0  0
   -1.4584   -4.4334    1.2381 P   0  0  0  0  0  0  0  0  0  0  0  0
   -0.6830   -3.7958   -1.4903 S   0  0  0  0  0  0  0  0  0  0  0  0
    1.5178   -3.4934    7.4501 H   0  0  0  0  0  0  0  0  0  0  0  0
    2.6711   -3.7257    5.2653 H   0  0  0  0  0  0  0  0  0  0  0  0
    1.0831   -1.2400    8.3900 H   0  0  0  0  0  0  0  0  0  0  0  0
    4.2897    1.6494    0.5339 H   0  0  0  0  0  0  0  0  0  0  0  0
    2.0767    0.9689   -0.3338 H   0  0  0  0  0  0  0  0  0  0  0  0
    3.3893   -1.7101    4.0212 H   0  0  0  0  0  0  0  0  0  0  0  0
    1.7996    0.7812    7.1508 H   0  0  0  0  0  0  0  0  0  0  0  0
    4.7529    1.5710    2.9642 H   0  0  0  0  0  0  0  0  0  0  0  0
    0.7683    0.1201    3.6793 H   0  0  0  0  0  0  0  0  0  0  0  0
   -0.8572    0.3487    1.8110 H   0  0  0  0  0  0  0  0  0  0  0  0
   -0.2822    0.6749    0.1913 H   0  0  0  0  0  0  0  0  0  0  0  0
    0.5806   -1.6169   -0.0246 H   0  0  0  0  0  0  0  0  0  0  0  0
    0.0965   -2.0075    1.6225 H   0  0  0  0  0  0  0  0  0  0  0  0
   -1.7582   -1.2235   -0.6842 H   0  0  0  0  0  0  0  0  0  0  0  0
   -2.3201   -1.5196    0.9530 H   0  0  0  0  0  0  0  0  0  0  0  0
   -2.7529   -3.4164   -0.4700 H   0  0  0  0  0  0  0  0  0  0  0  0
   -2.4571   -6.4511    1.4545 H   0  0  0  0  0  0  0  0  0  0  0  0
   -2.4266   -4.3430    3.2791 H   0  0  0  0  0  0  0  0  0  0  0  0
   -2.3282   -5.2572   -1.9053 H   0  0  0  0  0  0  0  0  0  0  0  0
  1  2  2  0  0  0  0
  1  3  1  0  0  0  0
  1 26  1  0  0  0  0
  2  6  1  0  0  0  0
  2 27  1  0  0  0  0
  3  7  2  0  0  0  0
  3 28  1  0  0  0  0
  4  5  2  0  0  0  0
  4  8  1  0  0  0  0
  4 29  1  0  0  0  0
  5 10  1  0  0  0  0
  5 30  1  0  0  0  0
  6 11  2  0  0  0  0
  6 31  1  0  0  0  0
  7 11  1  0  0  0  0
  7 32  1  0  0  0  0
  8 12  2  0  0  0  0
  8 33  1  0  0  0  0
  9 10  2  0  0  0  0
  9 12  1  0  0  0  0
  9 34  1  0  0  0  0
 10 13  1  0  0  0  0
 11 23  1  0  0  0  0
 12 23  1  0  0  0  0
 13 14  1  0  0  0  0
 13 35  1  0  0  0  0
 13 36  1  0  0  0  0
 14 15  1  0  0  0  0
 14 37  1  0  0  0  0
 14 38  1  0  0  0  0
 15 16  1  0  0  0  0
 15 39  1  0  0  0  0
 15 40  1  0  0  0  0
 16 24  1  0  0  0  0
 16 25  1  0  0  0  0
 16 41  1  6  0  0  0
 17 24  2  0  0  0  0
 18 25  2  0  0  0  0
 19 25  2  0  0  0  0
 20 24  1  0  0  0  0
 20 42  1  0  0  0  0
 21 24  1  0  0  0  0
 21 43  1  0  0  0  0
 22 25  1  0  0  0  0
 22 44  1  0  0  0  0
M  END
$$$$
